/PREP7                                                                                                                  
/TITLE,                                                                                                                 
ET,     1,PLANE42,,,     3
N,5,8.00000000,0.600000000E-01,0.00000000,0.00000000,0.00000000,0.00000000
N,197,8.00000000,3.00000000,0.00000000,0.00000000,0.00000000,0.00000000
N,12,8.00000000,0.354000000,0.00000000,0.00000000,0.00000000,0.00000000
N,21,8.00000000,0.648000000,0.00000000,0.00000000,0.00000000,0.00000000
N,32,8.00000000,0.942000000,0.00000000,0.00000000,0.00000000,0.00000000
N,45,8.00000000,1.23600000,0.00000000,0.00000000,0.00000000,0.00000000
N,60,8.00000000,1.53000000,0.00000000,0.00000000,0.00000000,0.00000000
N,81,8.00000000,1.82400000,0.00000000,0.00000000,0.00000000,0.00000000
N,110,8.00000000,2.11800000,0.00000000,0.00000000,0.00000000,0.00000000
N,139,8.00000000,2.41200000,0.00000000,0.00000000,0.00000000,0.00000000
N,168,8.00000000,2.70600000,0.00000000,0.00000000,0.00000000,0.00000000
N,65,5.99980006,0.199960012E-01,0.00000000,0.00000000,0.00000000,0.00000000
N,4,7.81816364,0.563632728E-01,0.00000000,0.00000000,0.00000000,0.00000000
N,6,7.63632728,0.527265457E-01,0.00000000,0.00000000,0.00000000,0.00000000
N,13,7.45449093,0.490898185E-01,0.00000000,0.00000000,0.00000000,0.00000000
N,22,7.27265457,0.454530913E-01,0.00000000,0.00000000,0.00000000,0.00000000
N,33,7.09081821,0.418163642E-01,0.00000000,0.00000000,0.00000000,0.00000000
N,46,6.90898185,0.381796370E-01,0.00000000,0.00000000,0.00000000,0.00000000
N,61,6.72714549,0.345429099E-01,0.00000000,0.00000000,0.00000000,0.00000000
N,62,6.54530913,0.309061827E-01,0.00000000,0.00000000,0.00000000,0.00000000
! ... 909 like lines cut

! Element connectivity: 'EN', element_id,  node_ids
! Material:             'MP', property_id, material_id, value 
! Custom property:      'R',  property_id, value 
! Material 1
MP,	EX,  	1,	200000
MP,	PRXY,	1,	0.3
MP,	DENS,	1,	1
MP,      SGY,   1,      10
MP,       N,    1,      0.1
R, 	1,	0.1
EN,1,197,196,167,168
EN,2,196,194,163,167
EN,3,194,192,161,163
EN,4,192,190,159,161
EN,5,190,189,158,159
EN,6,189,188,157,158
EN,7,188,187,156,157
EN,8,187,186,155,156
EN,9,186,185,154,155
EN,10,185,184,153,154
EN,11,184,183,182,153
EN,12,168,167,138,139
EN,13,167,163,136,138
EN,14,163,161,130,136
EN,15,161,159,128,130
EN,16,159,158,127,128
EN,17,158,157,126,127
EN,18,157,156,125,126
EN,19,156,155,124,125
EN,20,155,154,123,124
! ... 558 like lines cut
! Material 2
MP,	EX,  	2,	300000
MP,	PRXY,	2,	0.3
MP,	DENS,	2,	1
MP,      SGY,   2,      300000000000
MP,       N,    2,      0.1
R, 	2,	1
! Connectivity
EN,441,702,672,671,701
EN,442,672,640,639,671
EN,443,640,606,605,639
EN,444,606,570,569,605
EN,445,570,532,531,569
EN,446,701,671,670,700
EN,447,671,639,638,670
EN,448,639,605,604,638
EN,449,605,569,568,604
EN,450,569,531,530,568
EN,451,700,670,669,699
EN,452,670,638,637,669
EN,453,638,604,603,637
EN,454,604,568,567,603
EN,455,568,530,529,567
EN,456,699,669,668,698
EN,457,669,637,636,668
EN,458,637,603,602,636
EN,459,603,567,566,602
EN,460,567,529,528,566
! ... 280 like lines cut
D,917,UY,0.00000000
D,707,UY,0.00000000
D,909,UY,0.00000000
D,899,UY,0.00000000
D,887,UY,0.00000000
D,873,UY,0.00000000
D,857,UY,0.00000000
D,839,UY,0.00000000
D,819,UY,0.00000000
D,795,UY,0.00000000
D,767,UY,0.00000000
D,735,UY,0.00000000
D,357,UY,0.00000000
D,389,UY,0.00000000
D,423,UY,0.00000000
D,459,UY,0.00000000
D,497,UY,0.00000000
D,537,UY,0.00000000
D,575,UY,0.00000000
D,611,UY,0.00000000
D,645,UY,0.00000000
D,677,UY,0.00000000
D,929,UX,0.00000000
D,929,UY,0.00000000
D,923,UY,0.00000000
D,927,UY,0.00000000
SFE,   771,     4,PRES,0, -150.000000    
SFE,   774,     4,PRES,0, -150.000000    
SFE,   777,     4,PRES,0, -150.000000    
SFE,   780,     4,PRES,0, -150.000000    
SFE,   783,     4,PRES,0, -150.000000    
SFE,   786,     4,PRES,0, -150.000000    
SFE,   789,     4,PRES,0, -150.000000    
SFE,   792,     4,PRES,0, -150.000000    
SFE,   795,     4,PRES,0, -150.000000    
SFE,   798,     4,PRES,0, -150.000000    
SFE,   801,     4,PRES,0, -150.000000    
SFE,   804,     4,PRES,0, -150.000000    
SFE,   807,     4,PRES,0, -150.000000    
SFE,   810,     4,PRES,0, -150.000000    
SFE,   813,     4,PRES,0, -150.000000    
SFE,   816,     4,PRES,0, -150.000000    
SFE,   819,     4,PRES,0, -150.000000    
SFE,   822,     4,PRES,0, -150.000000    
SFE,   825,     4,PRES,0, -150.000000    
SFE,   828,     4,PRES,0, -150.000000    
! ... 6 like lines cut
FINISH                                                                                                                  

